CycPeptMPDB_ID_1885_CHCl3
     RDKit          3D

 43 45  0  0  0  0  0  0  0  0999 V2000
   -2.5386   -2.8203    1.2185 C   0  0  0  0  0  0  0  0  0  0  0  0
   -1.1819   -2.3547    0.6761 C   0  0  2  0  0  0  0  0  0  0  0  0
   -1.2243   -2.1359   -0.7579 N   0  0  0  0  0  0  0  0  0  0  0  0
   -1.4523   -1.0444   -1.5046 C   0  0  0  0  0  0  0  0  0  0  0  0
   -1.3863   -1.0950   -2.7243 O   0  0  0  0  0  0  0  0  0  0  0  0
   -1.7934    0.2857   -0.8086 C   0  0  2  0  0  0  0  0  0  0  0  0
   -3.1332    0.8026   -1.3594 C   0  0  0  0  0  0  0  0  0  0  0  0
   -4.3169   -0.0285   -0.8690 C   0  0  0  0  0  0  0  0  0  0  0  0
   -5.6651    0.5383   -1.3145 C   0  0  0  0  0  0  0  0  0  0  0  0
   -5.9013    0.4454   -2.8294 C   0  0  0  0  0  0  0  0  0  0  0  0
   -7.2292    0.8583   -3.2552 N   0  0  0  0  0  0  0  0  0  0  0  0
   -0.7569    1.2511   -1.1293 N   0  0  0  0  0  0  0  0  0  0  0  0
    0.2169    1.7793   -0.3733 C   0  0  0  0  0  0  0  0  0  0  0  0
    1.0199    2.5834   -0.8254 O   0  0  0  0  0  0  0  0  0  0  0  0
    0.2444    1.3503    1.1007 C   0  0  2  0  0  0  0  0  0  0  0  0
   -0.7984    2.1862    1.8735 C   0  0  0  0  0  0  0  0  0  0  0  0
   -0.9247    1.7111    3.2968 C   0  0  0  0  0  0  0  0  0  0  0  0
   -0.2662    2.3643    4.3308 C   0  0  0  0  0  0  0  0  0  0  0  0
   -0.3671    1.9037    5.6327 C   0  0  0  0  0  0  0  0  0  0  0  0
   -1.1293    0.7836    5.9172 C   0  0  0  0  0  0  0  0  0  0  0  0
   -1.7950    0.1290    4.8941 C   0  0  0  0  0  0  0  0  0  0  0  0
   -1.6897    0.5888    3.5935 C   0  0  0  0  0  0  0  0  0  0  0  0
    1.5305    1.5537    1.7268 N   0  0  0  0  0  0  0  0  0  0  0  0
    2.6685    0.8501    1.7889 C   0  0  0  0  0  0  0  0  0  0  0  0
    3.5035    1.1481    2.6383 O   0  0  0  0  0  0  0  0  0  0  0  0
    3.0700   -0.2708    0.8071 C   0  0  2  0  0  0  0  0  0  0  0  0
    2.1821   -0.6758   -0.3795 C   0  0  0  0  0  0  0  0  0  0  0  0
    2.9846   -1.5395   -1.3199 C   0  0  0  0  0  0  0  0  0  0  0  0
    2.8122   -2.9150   -1.3573 C   0  0  0  0  0  0  0  0  0  0  0  0
    3.5819   -3.7050   -2.1929 C   0  0  0  0  0  0  0  0  0  0  0  0
    4.5448   -3.1236   -3.0074 C   0  0  0  0  0  0  0  0  0  0  0  0
    5.3319   -3.8604   -3.8409 O   0  0  0  0  0  0  0  0  0  0  0  0
    4.7198   -1.7424   -2.9837 C   0  0  0  0  0  0  0  0  0  0  0  0
    3.9444   -0.9658   -2.1479 C   0  0  0  0  0  0  0  0  0  0  0  0
    3.5358   -1.4249    1.5657 N   0  0  0  0  0  0  0  0  0  0  0  0
    2.8834   -2.2890    2.3429 C   0  0  0  0  0  0  0  0  0  0  0  0
    3.4813   -3.1968    2.9175 O   0  0  0  0  0  0  0  0  0  0  0  0
    1.3565   -2.1919    2.4862 C   0  0  2  0  0  0  0  0  0  0  0  0
    0.9976   -2.2395    3.9923 C   0  0  0  0  0  0  0  0  0  0  0  0
    1.3108   -3.4685    4.5850 O   0  0  0  0  0  0  0  0  0  0  0  0
    0.8207   -3.3416    1.7847 N   0  0  0  0  0  0  0  0  0  0  0  0
   -0.1834   -3.4975    0.9102 C   0  0  0  0  0  0  0  0  0  0  0  0
   -0.3248   -4.5512    0.3040 O   0  0  0  0  0  0  0  0  0  0  0  0
  2  1  1  6
  2 42  1  0
  2  3  1  0
  3  4  1  0
  4  5  2  0
  4  6  1  0
  6  7  1  6
  6 12  1  0
  7  8  1  0
  8  9  1  0
  9 10  1  0
 10 11  1  0
 12 13  1  0
 13 14  2  0
 13 15  1  0
 15 16  1  1
 15 23  1  0
 16 17  1  0
 17 22  1  0
 17 18  2  0
 18 19  1  0
 19 20  2  0
 20 21  1  0
 21 22  2  0
 23 24  1  0
 24 25  2  0
 24 26  1  0
 26 27  1  1
 26 35  1  0
 27 28  1  0
 28 34  1  0
 28 29  2  0
 29 30  1  0
 30 31  2  0
 31 32  1  0
 31 33  1  0
 33 34  2  0
 35 36  1  0
 36 37  2  0
 36 38  1  0
 38 39  1  1
 38 41  1  0
 39 40  1  0
 41 42  1  0
 42 43  2  0
M  END
